Version 4
SHEET 1 880 680
WIRE -400 -608 -496 -608
WIRE -48 -608 -320 -608
WIRE 112 -608 -48 -608
WIRE 192 -608 112 -608
WIRE -496 -544 -496 -608
WIRE -112 -544 -160 -544
WIRE -48 -544 -48 -608
WIRE 112 -544 112 -608
WIRE -160 -448 -160 -464
WIRE -128 -448 -160 -448
WIRE -112 -448 -128 -448
WIRE 112 -448 112 -464
WIRE -496 -432 -496 -464
WIRE -128 -432 -128 -448
FLAG 112 -448 0
FLAG -48 -448 0
FLAG -128 -432 0
FLAG -496 -432 0
FLAG 192 -608 v_output
IOPIN 192 -608 Out
SYMBOL snspdWithPhotonPort -48 -496 R0
SYMATTR InstName U1
SYMATTR Value Lind=130n
SYMATTR SpiceModel nanowireBCF
SYMBOL res 96 -560 R0
SYMATTR InstName R2
SYMATTR Value 50
SYMBOL current -160 -464 R180
WINDOW 3 -430 -87 Left 2
WINDOW 123 0 0 Left 2
WINDOW 39 0 0 Left 2
SYMATTR Value PWL file=D:\GitHub\SNSPDs-Probabilistic-Computing\snspd_data.txt
SYMATTR InstName I1
SYMBOL voltage -496 -560 R0
WINDOW 123 0 0 Left 2
SYMATTR InstName V1
SYMATTR Value 1.5
SYMATTR SpiceLine Rser=0
SYMBOL res -304 -624 R90
WINDOW 0 0 56 VBottom 2
WINDOW 3 32 56 VTop 2
SYMATTR InstName R1
SYMATTR Value 100k
TEXT -400 -808 Left 2 !.tran 0 500n 0 1p uic
TEXT -544 -808 Left 2 ;SNSPD BCF
TEXT 64 -704 Left 2 ;Add a resistor (50 ohm) to\nmeasure the output voltage
TEXT -544 -680 Left 2 ;An current is applied to the SNSPD
TEXT -544 -760 Left 2 ;Under low-light conditions, the SNSPD is modeled as a Poisson Process.
RECTANGLE Normal -304 -400 -544 -656 1
RECTANGLE Normal 16 -400 -224 -656 1
RECTANGLE Normal 336 -400 64 -656 1
